<?xml version="1.0" encoding="UTF-8"?>

<!-- generated on 2023-08-03 20:37:45 by Eclipse SUMO netedit Version 1.18.0
<configuration xmlns:xsi="http://www.w3.org/2001/XMLSchema-instance" xsi:noNamespaceSchemaLocation="http://sumo.dlr.de/xsd/neteditConfiguration.xsd">

    <input>
        <sumo-net-file value="C:\Users\55437\Desktop\TraPy\resources\demo.net.xml"/>
    </input>

    <output>
        <output-file value="C:\Users\55437\Desktop\TraPy\resources\demo.net.xml"/>
    </output>

    <processing>
        <geometry.min-radius.fix.railways value="false"/>
        <geometry.max-grade.fix value="false"/>
        <offset.disable-normalization value="true"/>
        <lefthand value="0"/>
    </processing>

    <junctions>
        <no-turnarounds value="true"/>
        <junctions.corner-detail value="5"/>
        <junctions.limit-turn-speed value="5.50"/>
        <rectangular-lane-cut value="0"/>
    </junctions>

    <pedestrian>
        <walkingareas value="0"/>
    </pedestrian>

</configuration>
-->

<net version="1.16" junctionCornerDetail="5" limitTurnSpeed="5.50" xmlns:xsi="http://www.w3.org/2001/XMLSchema-instance" xsi:noNamespaceSchemaLocation="http://sumo.dlr.de/xsd/net_file.xsd">

    <location netOffset="0.00,0.00" convBoundary="0.00,0.00,5000.00,5000.00" origBoundary="0.00,0.00,5000.00,5000.00" projParameter="!"/>

    <edge id=":A0_0" function="internal">
        <lane id=":A0_0_0" index="0" speed="6.08" length="7.74" shape="-1.60,3.20 -1.30,1.10 -0.40,-0.40 1.10,-1.30 3.20,-1.60"/>
    </edge>
    <edge id=":A0_1" function="internal">
        <lane id=":A0_1_0" index="0" speed="3.90" length="2.58" shape="3.20,1.60 2.50,1.70 2.00,2.00 1.70,2.50 1.60,3.20"/>
    </edge>
    <edge id=":A1_0" function="internal">
        <lane id=":A1_0_0" index="0" speed="13.89" length="14.40" shape="-1.60,1007.20 -1.60,992.80"/>
    </edge>
    <edge id=":A1_1" function="internal">
        <lane id=":A1_1_0" index="0" speed="8.00" length="4.07" shape="-1.60,1007.20 -1.05,1003.35 -0.96,1003.20"/>
    </edge>
    <edge id=":A1_2" function="internal">
        <lane id=":A1_2_0" index="0" speed="3.65" length="1.44" shape="-1.60,1007.20 -0.80,1006.00"/>
    </edge>
    <edge id=":A1_9" function="internal">
        <lane id=":A1_9_0" index="0" speed="8.00" length="10.13" shape="-0.96,1003.20 0.60,1000.60 3.35,998.95 7.20,998.40"/>
    </edge>
    <edge id=":A1_10" function="internal">
        <lane id=":A1_10_0" index="0" speed="3.65" length="3.23" shape="-0.80,1006.00 0.00,1005.60 0.80,1006.00 1.60,1007.20"/>
    </edge>
    <edge id=":A1_3" function="internal">
        <lane id=":A1_3_0" index="0" speed="6.51" length="9.03" shape="7.20,1001.60 4.75,1001.95 3.00,1003.00 1.95,1004.75 1.60,1007.20"/>
    </edge>
    <edge id=":A1_4" function="internal">
        <lane id=":A1_4_0" index="0" speed="8.00" length="14.19" shape="7.20,1001.60 3.35,1001.05 0.60,999.40 -1.05,996.65 -1.60,992.80"/>
    </edge>
    <edge id=":A1_5" function="internal">
        <lane id=":A1_5_0" index="0" speed="3.65" length="4.67" shape="7.20,1001.60 6.00,1000.80 5.60,1000.00 6.00,999.20 7.20,998.40"/>
    </edge>
    <edge id=":A1_6" function="internal">
        <lane id=":A1_6_0" index="0" speed="6.51" length="9.03" shape="1.60,992.80 1.95,995.25 3.00,997.00 4.75,998.05 7.20,998.40"/>
    </edge>
    <edge id=":A1_7" function="internal">
        <lane id=":A1_7_0" index="0" speed="13.89" length="14.40" shape="1.60,992.80 1.60,1007.20"/>
    </edge>
    <edge id=":A1_8" function="internal">
        <lane id=":A1_8_0" index="0" speed="3.65" length="1.44" shape="1.60,992.80 0.80,994.00"/>
    </edge>
    <edge id=":A1_11" function="internal">
        <lane id=":A1_11_0" index="0" speed="3.65" length="3.23" shape="0.80,994.00 0.00,994.40 -0.80,994.00 -1.60,992.80"/>
    </edge>
    <edge id=":A2_0" function="internal">
        <lane id=":A2_0_0" index="0" speed="13.89" length="14.40" shape="-1.60,2007.20 -1.60,1992.80"/>
    </edge>
    <edge id=":A2_1" function="internal">
        <lane id=":A2_1_0" index="0" speed="8.00" length="4.07" shape="-1.60,2007.20 -1.05,2003.35 -0.96,2003.20"/>
    </edge>
    <edge id=":A2_2" function="internal">
        <lane id=":A2_2_0" index="0" speed="3.65" length="1.44" shape="-1.60,2007.20 -0.80,2006.00"/>
    </edge>
    <edge id=":A2_9" function="internal">
        <lane id=":A2_9_0" index="0" speed="8.00" length="10.13" shape="-0.96,2003.20 0.60,2000.60 3.35,1998.95 7.20,1998.40"/>
    </edge>
    <edge id=":A2_10" function="internal">
        <lane id=":A2_10_0" index="0" speed="3.65" length="3.23" shape="-0.80,2006.00 0.00,2005.60 0.80,2006.00 1.60,2007.20"/>
    </edge>
    <edge id=":A2_3" function="internal">
        <lane id=":A2_3_0" index="0" speed="6.51" length="9.03" shape="7.20,2001.60 4.75,2001.95 3.00,2003.00 1.95,2004.75 1.60,2007.20"/>
    </edge>
    <edge id=":A2_4" function="internal">
        <lane id=":A2_4_0" index="0" speed="8.00" length="14.19" shape="7.20,2001.60 3.35,2001.05 0.60,1999.40 -1.05,1996.65 -1.60,1992.80"/>
    </edge>
    <edge id=":A2_5" function="internal">
        <lane id=":A2_5_0" index="0" speed="3.65" length="4.67" shape="7.20,2001.60 6.00,2000.80 5.60,2000.00 6.00,1999.20 7.20,1998.40"/>
    </edge>
    <edge id=":A2_6" function="internal">
        <lane id=":A2_6_0" index="0" speed="6.51" length="9.03" shape="1.60,1992.80 1.95,1995.25 3.00,1997.00 4.75,1998.05 7.20,1998.40"/>
    </edge>
    <edge id=":A2_7" function="internal">
        <lane id=":A2_7_0" index="0" speed="13.89" length="14.40" shape="1.60,1992.80 1.60,2007.20"/>
    </edge>
    <edge id=":A2_8" function="internal">
        <lane id=":A2_8_0" index="0" speed="3.65" length="1.44" shape="1.60,1992.80 0.80,1994.00"/>
    </edge>
    <edge id=":A2_11" function="internal">
        <lane id=":A2_11_0" index="0" speed="3.65" length="3.23" shape="0.80,1994.00 0.00,1994.40 -0.80,1994.00 -1.60,1992.80"/>
    </edge>
    <edge id=":A3_0" function="internal">
        <lane id=":A3_0_0" index="0" speed="13.89" length="14.40" shape="-1.60,3007.20 -1.60,2992.80"/>
    </edge>
    <edge id=":A3_1" function="internal">
        <lane id=":A3_1_0" index="0" speed="8.00" length="4.07" shape="-1.60,3007.20 -1.05,3003.35 -0.96,3003.20"/>
    </edge>
    <edge id=":A3_2" function="internal">
        <lane id=":A3_2_0" index="0" speed="3.65" length="1.44" shape="-1.60,3007.20 -0.80,3006.00"/>
    </edge>
    <edge id=":A3_9" function="internal">
        <lane id=":A3_9_0" index="0" speed="8.00" length="10.13" shape="-0.96,3003.20 0.60,3000.60 3.35,2998.95 7.20,2998.40"/>
    </edge>
    <edge id=":A3_10" function="internal">
        <lane id=":A3_10_0" index="0" speed="3.65" length="3.23" shape="-0.80,3006.00 0.00,3005.60 0.80,3006.00 1.60,3007.20"/>
    </edge>
    <edge id=":A3_3" function="internal">
        <lane id=":A3_3_0" index="0" speed="6.51" length="9.03" shape="7.20,3001.60 4.75,3001.95 3.00,3003.00 1.95,3004.75 1.60,3007.20"/>
    </edge>
    <edge id=":A3_4" function="internal">
        <lane id=":A3_4_0" index="0" speed="8.00" length="14.19" shape="7.20,3001.60 3.35,3001.05 0.60,2999.40 -1.05,2996.65 -1.60,2992.80"/>
    </edge>
    <edge id=":A3_5" function="internal">
        <lane id=":A3_5_0" index="0" speed="3.65" length="4.67" shape="7.20,3001.60 6.00,3000.80 5.60,3000.00 6.00,2999.20 7.20,2998.40"/>
    </edge>
    <edge id=":A3_6" function="internal">
        <lane id=":A3_6_0" index="0" speed="6.51" length="9.03" shape="1.60,2992.80 1.95,2995.25 3.00,2997.00 4.75,2998.05 7.20,2998.40"/>
    </edge>
    <edge id=":A3_7" function="internal">
        <lane id=":A3_7_0" index="0" speed="13.89" length="14.40" shape="1.60,2992.80 1.60,3007.20"/>
    </edge>
    <edge id=":A3_8" function="internal">
        <lane id=":A3_8_0" index="0" speed="3.65" length="1.44" shape="1.60,2992.80 0.80,2994.00"/>
    </edge>
    <edge id=":A3_11" function="internal">
        <lane id=":A3_11_0" index="0" speed="3.65" length="3.23" shape="0.80,2994.00 0.00,2994.40 -0.80,2994.00 -1.60,2992.80"/>
    </edge>
    <edge id=":A4_0" function="internal">
        <lane id=":A4_0_0" index="0" speed="13.89" length="14.40" shape="-1.60,4007.20 -1.60,3992.80"/>
    </edge>
    <edge id=":A4_1" function="internal">
        <lane id=":A4_1_0" index="0" speed="8.00" length="4.07" shape="-1.60,4007.20 -1.05,4003.35 -0.96,4003.20"/>
    </edge>
    <edge id=":A4_2" function="internal">
        <lane id=":A4_2_0" index="0" speed="3.65" length="1.44" shape="-1.60,4007.20 -0.80,4006.00"/>
    </edge>
    <edge id=":A4_9" function="internal">
        <lane id=":A4_9_0" index="0" speed="8.00" length="10.13" shape="-0.96,4003.20 0.60,4000.60 3.35,3998.95 7.20,3998.40"/>
    </edge>
    <edge id=":A4_10" function="internal">
        <lane id=":A4_10_0" index="0" speed="3.65" length="3.23" shape="-0.80,4006.00 0.00,4005.60 0.80,4006.00 1.60,4007.20"/>
    </edge>
    <edge id=":A4_3" function="internal">
        <lane id=":A4_3_0" index="0" speed="6.51" length="9.03" shape="7.20,4001.60 4.75,4001.95 3.00,4003.00 1.95,4004.75 1.60,4007.20"/>
    </edge>
    <edge id=":A4_4" function="internal">
        <lane id=":A4_4_0" index="0" speed="8.00" length="14.19" shape="7.20,4001.60 3.35,4001.05 0.60,3999.40 -1.05,3996.65 -1.60,3992.80"/>
    </edge>
    <edge id=":A4_5" function="internal">
        <lane id=":A4_5_0" index="0" speed="3.65" length="4.67" shape="7.20,4001.60 6.00,4000.80 5.60,4000.00 6.00,3999.20 7.20,3998.40"/>
    </edge>
    <edge id=":A4_6" function="internal">
        <lane id=":A4_6_0" index="0" speed="6.51" length="9.03" shape="1.60,3992.80 1.95,3995.25 3.00,3997.00 4.75,3998.05 7.20,3998.40"/>
    </edge>
    <edge id=":A4_7" function="internal">
        <lane id=":A4_7_0" index="0" speed="13.89" length="14.40" shape="1.60,3992.80 1.60,4007.20"/>
    </edge>
    <edge id=":A4_8" function="internal">
        <lane id=":A4_8_0" index="0" speed="3.65" length="1.44" shape="1.60,3992.80 0.80,3994.00"/>
    </edge>
    <edge id=":A4_11" function="internal">
        <lane id=":A4_11_0" index="0" speed="3.65" length="3.23" shape="0.80,3994.00 0.00,3994.40 -0.80,3994.00 -1.60,3992.80"/>
    </edge>
    <edge id=":A5_0" function="internal">
        <lane id=":A5_0_0" index="0" speed="6.08" length="7.74" shape="3.20,5001.60 1.10,5001.30 -0.40,5000.40 -1.30,4998.90 -1.60,4996.80"/>
    </edge>
    <edge id=":A5_1" function="internal">
        <lane id=":A5_1_0" index="0" speed="3.90" length="2.58" shape="1.60,4996.80 1.70,4997.50 2.00,4998.00 2.50,4998.30 3.20,4998.40"/>
    </edge>
    <edge id=":B0_0" function="internal">
        <lane id=":B0_0_0" index="0" speed="6.51" length="9.03" shape="998.40,7.20 998.05,4.75 997.00,3.00 995.25,1.95 992.80,1.60"/>
    </edge>
    <edge id=":B0_1" function="internal">
        <lane id=":B0_1_0" index="0" speed="8.00" length="14.19" shape="998.40,7.20 998.95,3.35 1000.60,0.60 1003.35,-1.05 1007.20,-1.60"/>
    </edge>
    <edge id=":B0_2" function="internal">
        <lane id=":B0_2_0" index="0" speed="3.65" length="4.67" shape="998.40,7.20 999.20,6.00 1000.00,5.60 1000.80,6.00 1001.60,7.20"/>
    </edge>
    <edge id=":B0_3" function="internal">
        <lane id=":B0_3_0" index="0" speed="6.51" length="9.03" shape="1007.20,1.60 1004.75,1.95 1003.00,3.00 1001.95,4.75 1001.60,7.20"/>
    </edge>
    <edge id=":B0_4" function="internal">
        <lane id=":B0_4_0" index="0" speed="13.89" length="14.40" shape="1007.20,1.60 992.80,1.60"/>
    </edge>
    <edge id=":B0_5" function="internal">
        <lane id=":B0_5_0" index="0" speed="3.65" length="1.44" shape="1007.20,1.60 1006.00,0.80"/>
    </edge>
    <edge id=":B0_9" function="internal">
        <lane id=":B0_9_0" index="0" speed="3.65" length="3.23" shape="1006.00,0.80 1005.60,0.00 1006.00,-0.80 1007.20,-1.60"/>
    </edge>
    <edge id=":B0_6" function="internal">
        <lane id=":B0_6_0" index="0" speed="13.89" length="14.40" shape="992.80,-1.60 1007.20,-1.60"/>
    </edge>
    <edge id=":B0_7" function="internal">
        <lane id=":B0_7_0" index="0" speed="8.00" length="4.07" shape="992.80,-1.60 996.65,-1.05 996.80,-0.96"/>
    </edge>
    <edge id=":B0_8" function="internal">
        <lane id=":B0_8_0" index="0" speed="3.65" length="1.44" shape="992.80,-1.60 994.00,-0.80"/>
    </edge>
    <edge id=":B0_10" function="internal">
        <lane id=":B0_10_0" index="0" speed="8.00" length="10.13" shape="996.80,-0.96 999.40,0.60 1001.05,3.35 1001.60,7.20"/>
    </edge>
    <edge id=":B0_11" function="internal">
        <lane id=":B0_11_0" index="0" speed="3.65" length="3.23" shape="994.00,-0.80 994.40,0.00 994.00,0.80 992.80,1.60"/>
    </edge>
    <edge id=":B1_0" function="internal">
        <lane id=":B1_0_0" index="0" speed="6.51" length="9.03" shape="998.40,1007.20 998.05,1004.75 997.00,1003.00 995.25,1001.95 992.80,1001.60"/>
    </edge>
    <edge id=":B1_1" function="internal">
        <lane id=":B1_1_0" index="0" speed="13.89" length="14.40" shape="998.40,1007.20 998.40,992.80"/>
    </edge>
    <edge id=":B1_2" function="internal">
        <lane id=":B1_2_0" index="0" speed="8.00" length="4.07" shape="998.40,1007.20 998.95,1003.35 999.04,1003.20"/>
    </edge>
    <edge id=":B1_3" function="internal">
        <lane id=":B1_3_0" index="0" speed="3.65" length="1.44" shape="998.40,1007.20 999.20,1006.00"/>
    </edge>
    <edge id=":B1_16" function="internal">
        <lane id=":B1_16_0" index="0" speed="8.00" length="10.13" shape="999.04,1003.20 1000.60,1000.60 1003.35,998.95 1007.20,998.40"/>
    </edge>
    <edge id=":B1_17" function="internal">
        <lane id=":B1_17_0" index="0" speed="3.65" length="3.23" shape="999.20,1006.00 1000.00,1005.60 1000.80,1006.00 1001.60,1007.20"/>
    </edge>
    <edge id=":B1_4" function="internal">
        <lane id=":B1_4_0" index="0" speed="6.51" length="9.03" shape="1007.20,1001.60 1004.75,1001.95 1003.00,1003.00 1001.95,1004.75 1001.60,1007.20"/>
    </edge>
    <edge id=":B1_5" function="internal">
        <lane id=":B1_5_0" index="0" speed="13.89" length="14.40" shape="1007.20,1001.60 992.80,1001.60"/>
    </edge>
    <edge id=":B1_6" function="internal">
        <lane id=":B1_6_0" index="0" speed="8.00" length="14.19" shape="1007.20,1001.60 1003.35,1001.05 1000.60,999.40 998.95,996.65 998.40,992.80"/>
    </edge>
    <edge id=":B1_7" function="internal">
        <lane id=":B1_7_0" index="0" speed="3.65" length="4.67" shape="1007.20,1001.60 1006.00,1000.80 1005.60,1000.00 1006.00,999.20 1007.20,998.40"/>
    </edge>
    <edge id=":B1_8" function="internal">
        <lane id=":B1_8_0" index="0" speed="6.51" length="9.03" shape="1001.60,992.80 1001.95,995.25 1003.00,997.00 1004.75,998.05 1007.20,998.40"/>
    </edge>
    <edge id=":B1_9" function="internal">
        <lane id=":B1_9_0" index="0" speed="13.89" length="14.40" shape="1001.60,992.80 1001.60,1007.20"/>
    </edge>
    <edge id=":B1_10" function="internal">
        <lane id=":B1_10_0" index="0" speed="8.00" length="4.07" shape="1001.60,992.80 1001.05,996.65 1000.96,996.80"/>
    </edge>
    <edge id=":B1_11" function="internal">
        <lane id=":B1_11_0" index="0" speed="3.65" length="1.44" shape="1001.60,992.80 1000.80,994.00"/>
    </edge>
    <edge id=":B1_18" function="internal">
        <lane id=":B1_18_0" index="0" speed="8.00" length="10.13" shape="1000.96,996.80 999.40,999.40 996.65,1001.05 992.80,1001.60"/>
    </edge>
    <edge id=":B1_19" function="internal">
        <lane id=":B1_19_0" index="0" speed="3.65" length="3.23" shape="1000.80,994.00 1000.00,994.40 999.20,994.00 998.40,992.80"/>
    </edge>
    <edge id=":B1_12" function="internal">
        <lane id=":B1_12_0" index="0" speed="6.51" length="9.03" shape="992.80,998.40 995.25,998.05 997.00,997.00 998.05,995.25 998.40,992.80"/>
    </edge>
    <edge id=":B1_13" function="internal">
        <lane id=":B1_13_0" index="0" speed="13.89" length="14.40" shape="992.80,998.40 1007.20,998.40"/>
    </edge>
    <edge id=":B1_14" function="internal">
        <lane id=":B1_14_0" index="0" speed="8.00" length="14.19" shape="992.80,998.40 996.65,998.95 999.40,1000.60 1001.05,1003.35 1001.60,1007.20"/>
    </edge>
    <edge id=":B1_15" function="internal">
        <lane id=":B1_15_0" index="0" speed="3.65" length="4.67" shape="992.80,998.40 994.00,999.20 994.40,1000.00 994.00,1000.80 992.80,1001.60"/>
    </edge>
    <edge id=":B2_0" function="internal">
        <lane id=":B2_0_0" index="0" speed="6.51" length="9.03" shape="998.40,2007.20 998.05,2004.75 997.00,2003.00 995.25,2001.95 992.80,2001.60"/>
    </edge>
    <edge id=":B2_1" function="internal">
        <lane id=":B2_1_0" index="0" speed="13.89" length="14.40" shape="998.40,2007.20 998.40,1992.80"/>
    </edge>
    <edge id=":B2_2" function="internal">
        <lane id=":B2_2_0" index="0" speed="8.00" length="4.07" shape="998.40,2007.20 998.95,2003.35 999.04,2003.20"/>
    </edge>
    <edge id=":B2_3" function="internal">
        <lane id=":B2_3_0" index="0" speed="3.65" length="1.44" shape="998.40,2007.20 999.20,2006.00"/>
    </edge>
    <edge id=":B2_16" function="internal">
        <lane id=":B2_16_0" index="0" speed="8.00" length="10.13" shape="999.04,2003.20 1000.60,2000.60 1003.35,1998.95 1007.20,1998.40"/>
    </edge>
    <edge id=":B2_17" function="internal">
        <lane id=":B2_17_0" index="0" speed="3.65" length="3.23" shape="999.20,2006.00 1000.00,2005.60 1000.80,2006.00 1001.60,2007.20"/>
    </edge>
    <edge id=":B2_4" function="internal">
        <lane id=":B2_4_0" index="0" speed="6.51" length="9.03" shape="1007.20,2001.60 1004.75,2001.95 1003.00,2003.00 1001.95,2004.75 1001.60,2007.20"/>
    </edge>
    <edge id=":B2_5" function="internal">
        <lane id=":B2_5_0" index="0" speed="13.89" length="14.40" shape="1007.20,2001.60 992.80,2001.60"/>
    </edge>
    <edge id=":B2_6" function="internal">
        <lane id=":B2_6_0" index="0" speed="8.00" length="14.19" shape="1007.20,2001.60 1003.35,2001.05 1000.60,1999.40 998.95,1996.65 998.40,1992.80"/>
    </edge>
    <edge id=":B2_7" function="internal">
        <lane id=":B2_7_0" index="0" speed="3.65" length="4.67" shape="1007.20,2001.60 1006.00,2000.80 1005.60,2000.00 1006.00,1999.20 1007.20,1998.40"/>
    </edge>
    <edge id=":B2_8" function="internal">
        <lane id=":B2_8_0" index="0" speed="6.51" length="9.03" shape="1001.60,1992.80 1001.95,1995.25 1003.00,1997.00 1004.75,1998.05 1007.20,1998.40"/>
    </edge>
    <edge id=":B2_9" function="internal">
        <lane id=":B2_9_0" index="0" speed="13.89" length="14.40" shape="1001.60,1992.80 1001.60,2007.20"/>
    </edge>
    <edge id=":B2_10" function="internal">
        <lane id=":B2_10_0" index="0" speed="8.00" length="4.07" shape="1001.60,1992.80 1001.05,1996.65 1000.96,1996.80"/>
    </edge>
    <edge id=":B2_11" function="internal">
        <lane id=":B2_11_0" index="0" speed="3.65" length="1.44" shape="1001.60,1992.80 1000.80,1994.00"/>
    </edge>
    <edge id=":B2_18" function="internal">
        <lane id=":B2_18_0" index="0" speed="8.00" length="10.13" shape="1000.96,1996.80 999.40,1999.40 996.65,2001.05 992.80,2001.60"/>
    </edge>
    <edge id=":B2_19" function="internal">
        <lane id=":B2_19_0" index="0" speed="3.65" length="3.23" shape="1000.80,1994.00 1000.00,1994.40 999.20,1994.00 998.40,1992.80"/>
    </edge>
    <edge id=":B2_12" function="internal">
        <lane id=":B2_12_0" index="0" speed="6.51" length="9.03" shape="992.80,1998.40 995.25,1998.05 997.00,1997.00 998.05,1995.25 998.40,1992.80"/>
    </edge>
    <edge id=":B2_13" function="internal">
        <lane id=":B2_13_0" index="0" speed="13.89" length="14.40" shape="992.80,1998.40 1007.20,1998.40"/>
    </edge>
    <edge id=":B2_14" function="internal">
        <lane id=":B2_14_0" index="0" speed="8.00" length="14.19" shape="992.80,1998.40 996.65,1998.95 999.40,2000.60 1001.05,2003.35 1001.60,2007.20"/>
    </edge>
    <edge id=":B2_15" function="internal">
        <lane id=":B2_15_0" index="0" speed="3.65" length="4.67" shape="992.80,1998.40 994.00,1999.20 994.40,2000.00 994.00,2000.80 992.80,2001.60"/>
    </edge>
    <edge id=":B3_0" function="internal">
        <lane id=":B3_0_0" index="0" speed="6.51" length="9.03" shape="998.40,3007.20 998.05,3004.75 997.00,3003.00 995.25,3001.95 992.80,3001.60"/>
    </edge>
    <edge id=":B3_1" function="internal">
        <lane id=":B3_1_0" index="0" speed="13.89" length="14.40" shape="998.40,3007.20 998.40,2992.80"/>
    </edge>
    <edge id=":B3_2" function="internal">
        <lane id=":B3_2_0" index="0" speed="8.00" length="4.07" shape="998.40,3007.20 998.95,3003.35 999.04,3003.20"/>
    </edge>
    <edge id=":B3_3" function="internal">
        <lane id=":B3_3_0" index="0" speed="3.65" length="1.44" shape="998.40,3007.20 999.20,3006.00"/>
    </edge>
    <edge id=":B3_16" function="internal">
        <lane id=":B3_16_0" index="0" speed="8.00" length="10.13" shape="999.04,3003.20 1000.60,3000.60 1003.35,2998.95 1007.20,2998.40"/>
    </edge>
    <edge id=":B3_17" function="internal">
        <lane id=":B3_17_0" index="0" speed="3.65" length="3.23" shape="999.20,3006.00 1000.00,3005.60 1000.80,3006.00 1001.60,3007.20"/>
    </edge>
    <edge id=":B3_4" function="internal">
        <lane id=":B3_4_0" index="0" speed="6.51" length="9.03" shape="1007.20,3001.60 1004.75,3001.95 1003.00,3003.00 1001.95,3004.75 1001.60,3007.20"/>
    </edge>
    <edge id=":B3_5" function="internal">
        <lane id=":B3_5_0" index="0" speed="13.89" length="14.40" shape="1007.20,3001.60 992.80,3001.60"/>
    </edge>
    <edge id=":B3_6" function="internal">
        <lane id=":B3_6_0" index="0" speed="8.00" length="14.19" shape="1007.20,3001.60 1003.35,3001.05 1000.60,2999.40 998.95,2996.65 998.40,2992.80"/>
    </edge>
    <edge id=":B3_7" function="internal">
        <lane id=":B3_7_0" index="0" speed="3.65" length="4.67" shape="1007.20,3001.60 1006.00,3000.80 1005.60,3000.00 1006.00,2999.20 1007.20,2998.40"/>
    </edge>
    <edge id=":B3_8" function="internal">
        <lane id=":B3_8_0" index="0" speed="6.51" length="9.03" shape="1001.60,2992.80 1001.95,2995.25 1003.00,2997.00 1004.75,2998.05 1007.20,2998.40"/>
    </edge>
    <edge id=":B3_9" function="internal">
        <lane id=":B3_9_0" index="0" speed="13.89" length="14.40" shape="1001.60,2992.80 1001.60,3007.20"/>
    </edge>
    <edge id=":B3_10" function="internal">
        <lane id=":B3_10_0" index="0" speed="8.00" length="4.07" shape="1001.60,2992.80 1001.05,2996.65 1000.96,2996.80"/>
    </edge>
    <edge id=":B3_11" function="internal">
        <lane id=":B3_11_0" index="0" speed="3.65" length="1.44" shape="1001.60,2992.80 1000.80,2994.00"/>
    </edge>
    <edge id=":B3_18" function="internal">
        <lane id=":B3_18_0" index="0" speed="8.00" length="10.13" shape="1000.96,2996.80 999.40,2999.40 996.65,3001.05 992.80,3001.60"/>
    </edge>
    <edge id=":B3_19" function="internal">
        <lane id=":B3_19_0" index="0" speed="3.65" length="3.23" shape="1000.80,2994.00 1000.00,2994.40 999.20,2994.00 998.40,2992.80"/>
    </edge>
    <edge id=":B3_12" function="internal">
        <lane id=":B3_12_0" index="0" speed="6.51" length="9.03" shape="992.80,2998.40 995.25,2998.05 997.00,2997.00 998.05,2995.25 998.40,2992.80"/>
    </edge>
    <edge id=":B3_13" function="internal">
        <lane id=":B3_13_0" index="0" speed="13.89" length="14.40" shape="992.80,2998.40 1007.20,2998.40"/>
    </edge>
    <edge id=":B3_14" function="internal">
        <lane id=":B3_14_0" index="0" speed="8.00" length="14.19" shape="992.80,2998.40 996.65,2998.95 999.40,3000.60 1001.05,3003.35 1001.60,3007.20"/>
    </edge>
    <edge id=":B3_15" function="internal">
        <lane id=":B3_15_0" index="0" speed="3.65" length="4.67" shape="992.80,2998.40 994.00,2999.20 994.40,3000.00 994.00,3000.80 992.80,3001.60"/>
    </edge>
    <edge id=":B4_0" function="internal">
        <lane id=":B4_0_0" index="0" speed="6.51" length="9.03" shape="998.40,4007.20 998.05,4004.75 997.00,4003.00 995.25,4001.95 992.80,4001.60"/>
    </edge>
    <edge id=":B4_1" function="internal">
        <lane id=":B4_1_0" index="0" speed="13.89" length="14.40" shape="998.40,4007.20 998.40,3992.80"/>
    </edge>
    <edge id=":B4_2" function="internal">
        <lane id=":B4_2_0" index="0" speed="8.00" length="4.07" shape="998.40,4007.20 998.95,4003.35 999.04,4003.20"/>
    </edge>
    <edge id=":B4_3" function="internal">
        <lane id=":B4_3_0" index="0" speed="3.65" length="1.44" shape="998.40,4007.20 999.20,4006.00"/>
    </edge>
    <edge id=":B4_16" function="internal">
        <lane id=":B4_16_0" index="0" speed="8.00" length="10.13" shape="999.04,4003.20 1000.60,4000.60 1003.35,3998.95 1007.20,3998.40"/>
    </edge>
    <edge id=":B4_17" function="internal">
        <lane id=":B4_17_0" index="0" speed="3.65" length="3.23" shape="999.20,4006.00 1000.00,4005.60 1000.80,4006.00 1001.60,4007.20"/>
    </edge>
    <edge id=":B4_4" function="internal">
        <lane id=":B4_4_0" index="0" speed="6.51" length="9.03" shape="1007.20,4001.60 1004.75,4001.95 1003.00,4003.00 1001.95,4004.75 1001.60,4007.20"/>
    </edge>
    <edge id=":B4_5" function="internal">
        <lane id=":B4_5_0" index="0" speed="13.89" length="14.40" shape="1007.20,4001.60 992.80,4001.60"/>
    </edge>
    <edge id=":B4_6" function="internal">
        <lane id=":B4_6_0" index="0" speed="8.00" length="14.19" shape="1007.20,4001.60 1003.35,4001.05 1000.60,3999.40 998.95,3996.65 998.40,3992.80"/>
    </edge>
    <edge id=":B4_7" function="internal">
        <lane id=":B4_7_0" index="0" speed="3.65" length="4.67" shape="1007.20,4001.60 1006.00,4000.80 1005.60,4000.00 1006.00,3999.20 1007.20,3998.40"/>
    </edge>
    <edge id=":B4_8" function="internal">
        <lane id=":B4_8_0" index="0" speed="6.51" length="9.03" shape="1001.60,3992.80 1001.95,3995.25 1003.00,3997.00 1004.75,3998.05 1007.20,3998.40"/>
    </edge>
    <edge id=":B4_9" function="internal">
        <lane id=":B4_9_0" index="0" speed="13.89" length="14.40" shape="1001.60,3992.80 1001.60,4007.20"/>
    </edge>
    <edge id=":B4_10" function="internal">
        <lane id=":B4_10_0" index="0" speed="8.00" length="4.07" shape="1001.60,3992.80 1001.05,3996.65 1000.96,3996.80"/>
    </edge>
    <edge id=":B4_11" function="internal">
        <lane id=":B4_11_0" index="0" speed="3.65" length="1.44" shape="1001.60,3992.80 1000.80,3994.00"/>
    </edge>
    <edge id=":B4_18" function="internal">
        <lane id=":B4_18_0" index="0" speed="8.00" length="10.13" shape="1000.96,3996.80 999.40,3999.40 996.65,4001.05 992.80,4001.60"/>
    </edge>
    <edge id=":B4_19" function="internal">
        <lane id=":B4_19_0" index="0" speed="3.65" length="3.23" shape="1000.80,3994.00 1000.00,3994.40 999.20,3994.00 998.40,3992.80"/>
    </edge>
    <edge id=":B4_12" function="internal">
        <lane id=":B4_12_0" index="0" speed="6.51" length="9.03" shape="992.80,3998.40 995.25,3998.05 997.00,3997.00 998.05,3995.25 998.40,3992.80"/>
    </edge>
    <edge id=":B4_13" function="internal">
        <lane id=":B4_13_0" index="0" speed="13.89" length="14.40" shape="992.80,3998.40 1007.20,3998.40"/>
    </edge>
    <edge id=":B4_14" function="internal">
        <lane id=":B4_14_0" index="0" speed="8.00" length="14.19" shape="992.80,3998.40 996.65,3998.95 999.40,4000.60 1001.05,4003.35 1001.60,4007.20"/>
    </edge>
    <edge id=":B4_15" function="internal">
        <lane id=":B4_15_0" index="0" speed="3.65" length="4.67" shape="992.80,3998.40 994.00,3999.20 994.40,4000.00 994.00,4000.80 992.80,4001.60"/>
    </edge>
    <edge id=":B5_0" function="internal">
        <lane id=":B5_0_0" index="0" speed="13.89" length="14.40" shape="1007.20,5001.60 992.80,5001.60"/>
    </edge>
    <edge id=":B5_1" function="internal">
        <lane id=":B5_1_0" index="0" speed="8.00" length="4.07" shape="1007.20,5001.60 1003.35,5001.05 1003.20,5000.96"/>
    </edge>
    <edge id=":B5_2" function="internal">
        <lane id=":B5_2_0" index="0" speed="3.65" length="1.44" shape="1007.20,5001.60 1006.00,5000.80"/>
    </edge>
    <edge id=":B5_9" function="internal">
        <lane id=":B5_9_0" index="0" speed="8.00" length="10.13" shape="1003.20,5000.96 1000.60,4999.40 998.95,4996.65 998.40,4992.80"/>
    </edge>
    <edge id=":B5_10" function="internal">
        <lane id=":B5_10_0" index="0" speed="3.65" length="3.23" shape="1006.00,5000.80 1005.60,5000.00 1006.00,4999.20 1007.20,4998.40"/>
    </edge>
    <edge id=":B5_3" function="internal">
        <lane id=":B5_3_0" index="0" speed="6.51" length="9.03" shape="1001.60,4992.80 1001.95,4995.25 1003.00,4997.00 1004.75,4998.05 1007.20,4998.40"/>
    </edge>
    <edge id=":B5_4" function="internal">
        <lane id=":B5_4_0" index="0" speed="8.00" length="14.19" shape="1001.60,4992.80 1001.05,4996.65 999.40,4999.40 996.65,5001.05 992.80,5001.60"/>
    </edge>
    <edge id=":B5_5" function="internal">
        <lane id=":B5_5_0" index="0" speed="3.65" length="4.67" shape="1001.60,4992.80 1000.80,4994.00 1000.00,4994.40 999.20,4994.00 998.40,4992.80"/>
    </edge>
    <edge id=":B5_6" function="internal">
        <lane id=":B5_6_0" index="0" speed="6.51" length="9.03" shape="992.80,4998.40 995.25,4998.05 997.00,4997.00 998.05,4995.25 998.40,4992.80"/>
    </edge>
    <edge id=":B5_7" function="internal">
        <lane id=":B5_7_0" index="0" speed="13.89" length="14.40" shape="992.80,4998.40 1007.20,4998.40"/>
    </edge>
    <edge id=":B5_8" function="internal">
        <lane id=":B5_8_0" index="0" speed="3.65" length="1.44" shape="992.80,4998.40 994.00,4999.20"/>
    </edge>
    <edge id=":B5_11" function="internal">
        <lane id=":B5_11_0" index="0" speed="3.65" length="3.23" shape="994.00,4999.20 994.40,5000.00 994.00,5000.80 992.80,5001.60"/>
    </edge>
    <edge id=":C0_0" function="internal">
        <lane id=":C0_0_0" index="0" speed="6.51" length="9.03" shape="1998.40,7.20 1998.05,4.75 1997.00,3.00 1995.25,1.95 1992.80,1.60"/>
    </edge>