<?xml version="1.0" encoding="UTF-8"?>

<!-- generated on 2023-08-04 00:23:35.967999 by randomTrips.py v1_18_0+0000-03ecfdea036
<configuration>
    <net-file value="demo.net.xml"/>
    <route-file value="demo.rou.xml"/>
    <end value="86400.0"/>
    <insertion-rate value="2000.0"/>
</configuration>
-->

<routes xmlns:xsi="http://www.w3.org/2001/XMLSchema-instance" xsi:noNamespaceSchemaLocation="http://sumo.dlr.de/xsd/routes_file.xsd">
    <trip id="0" depart="0.00" from="D4D3" to="A1A2"/>
    <trip id="1" depart="1.80" from="B4B5" to="B2C2"/>
    <trip id="2" depart="3.60" from="E1F1" to="D5E5"/>
    <trip id="3" depart="5.40" from="F1F0" to="A3B3"/>
    <trip id="4" depart="7.20" from="C3C2" to="A1A2"/>
    <trip id="5" depart="9.00" from="B2C2" to="D0C0"/>
    <trip id="6" depart="10.80" from="A1A2" to="B2A2"/>
    <trip id="7" depart="12.60" from="D4D5" to="D1D2"/>
    <trip id="8" depart="14.40" from="B2C2" to="D2E2"/>
    <trip id="9" depart="16.20" from="E4D4" to="A0A1"/>
    <trip id="10" depart="18.00" from="E3F3" to="E0E1"/>
    <trip id="11" depart="19.80" from="C0D0" to="B0C0"/>
    <trip id="12" depart="21.60" from="F3F4" to="C0D0"/>
    <trip id="13" depart="23.40" from="A4A3" to="A4A3"/>
    <trip id="14" depart="25.20" from="E5D5" to="D3D2"/>
    <trip id="15" depart="27.00" from="E3F3" to="E1E2"/>
    <trip id="16" depart="28.80" from="D1D0" to="F4F3"/>
    <trip id="17" depart="30.60" from="C2B2" to="D1E1"/>
    <trip id="18" depart="32.40" from="E4E5" to="D3E3"/>
    <trip id="19" depart="34.20" from="E5F5" to="D2D3"/>
    <trip id="20" depart="36.00" from="E0F0" to="A2A1"/>
    <trip id="21" depart="37.80" from="B3A3" to="B4C4"/>
    <trip id="22" depart="39.60" from="A3A4" to="B3A3"/>
    <trip id="23" depart="41.40" from="A4A5" to="B4B5"/>
    <trip id="24" depart="43.20" from="D4D3" to="C1C2"/>
    <trip id="25" depart="45.00" from="C1D1" to="B2B3"/>
    <trip id="26" depart="46.80" from="B4B3" to="F3E3"/>
    <trip id="27" depart="48.60" from="D4D5" to="D3D4"/>
    <trip id="28" depart="50.40" from="B1B0" to="E1E2"/>
    <trip id="29" depart="52.20" from="B1A1" to="C2B2"/>
    <trip id="30" depart="54.00" from="F5E5" to="D4D3"/>
    <trip id="31" depart="55.80" from="D1E1" to="E0D0"/>
    <trip id="32" depart="57.60" from="E5D5" to="E3D3"/>
    <trip id="33" depart="59.40" from="B3A3" to="A1A2"/>
    <trip id="34" depart="61.20" from="B5C5" to="B4B3"/>
    <trip id="35" depart="63.00" from="B2B3" to="F3F2"/>
    <trip id="36" depart="64.80" from="F0F1" to="B5C5"/>
    <trip id="37" depart="66.60" from="D4E4" to="C2C3"/>
    <trip id="38" depart="68.40" from="F2E2" to="C4C5"/>
    <trip id="39" depart="70.20" from="B4A4" to="B3B4"/>
    <trip id="40" depart="72.00" from="D2C2" to="B4A4"/>
    <trip id="41" depart="73.80" from="D2E2" to="F1F0"/>
    <trip id="42" depart="75.60" from="C2C3" to="B2C2"/>
    <trip id="43" depart="77.40" from="F5F4" to="D0D1"/>
    <trip id="44" depart="79.20" from="A3B3" to="A2A1"/>
    <trip id="45" depart="81.00" from="A4B4" to="D4C4"/>
    <trip id="46" depart="82.80" from="E3E4" to="C3C2"/>
    <trip id="47" depart="84.60" from="A2B2" to="C2B2"/>
    <trip id="48" depart="86.40" from="F5F4" to="D1C1"/>
    <trip id="49" depart="88.20" from="F4F3" to="E5F5"/>
    <trip id="50" depart="90.00" from="A0B0" to="E1E0"/>
    <trip id="51" depart="91.80" from="D5E5" to="D1D0"/>
    <trip id="52" depart="93.60" from="B4B3" to="D4D3"/>
    <trip id="53" depart="95.40" from="A4B4" to="C3D3"/>
    <trip id="54" depart="97.20" from="C4C3" to="F3F4"/>
    <trip id="55" depart="99.00" from="F0F1" to="B4A4"/>
    <trip id="56" depart="100.80" from="D0C0" to="B1B2"/>
    <trip id="57" depart="102.60" from="F2E2" to="F0E0"/>
    <trip id="58" depart="104.40" from="B5A5" to="D4D3"/>
    <trip id="59" depart="106.20" from="D3D4" to="B0C0"/>
    <trip id="60" depart="108.00" from="E2E3" to="D1D0"/>
    <trip id="61" depart="109.80" from="E3D3" to="D1C1"/>
    <trip id="62" depart="111.60" from="A0A1" to="C0B0"/>
    <trip id="63" depart="113.40" from="A1A0" to="F2F3"/>
    <trip id="64" depart="115.20" from="F0F1" to="E4E5"/>
    <trip id="65" depart="117.00" from="B5B4" to="A2A3"/>
    <trip id="66" depart="118.80" from="F0F1" to="F3F2"/>
    <trip id="67" depart="120.60" from="A3B3" to="C5C4"/>
    <trip id="68" depart="122.40" from="A3A2" to="E2E3"/>
    <trip id="69" depart="124.20" from="E2E3" to="A5B5"/>
    <trip id="70" depart="126.00" from="C5B5" to="D1D2"/>
    <trip id="71" depart="127.80" from="B4A4" to="F0E0"/>
    <trip id="72" depart="129.60" from="C3C2" to="B2B3"/>
    <trip id="73" depart="131.40" from="D1D0" to="E1E2"/>
    <trip id="74" depart="133.20" from="B2B1" to="B5C5"/>
    <trip id="75" depart="135.00" from="F5F4" to="D4D5"/>
    <trip id="76" depart="136.80" from="C3D3" to="D0E0"/>
    <trip id="77" depart="138.60" from="A5A4" to="B2C2"/>
    <trip id="78" depart="140.40" from="C0D0" to="D2E2"/>
    <trip id="79" depart="142.20" from="B3A3" to="B2C2"/>
    <trip id="80" depart="144.00" from="A3A2" to="D4C4"/>
    <trip id="81" depart="145.80" from="B3A3" to="F1F2"/>
    <trip id="82" depart="147.60" from="E5F5" to="A3A2"/>
    <trip id="83" depart="149.40" from="B3B2" to="D5D4"/>
    <trip id="84" depart="151.20" from="B2B3" to="A5B5"/>
    <trip id="85" depart="153.00" from="F3E3" to="D2D1"/>
    <trip id="86" depart="154.80" from="C4D4" to="E3E2"/>
    <trip id="87" depart="156.60" from="E3F3" to="B1C1"/>
    <trip id="88" depart="158.40" from="A4A3" to="C3C4"/>
    <trip id="89" depart="160.20" from="C3C2" to="C4D4"/>
    <trip id="90" depart="162.00" from="E1E2" to="D5D4"/>
    <trip id="91" depart="163.80" from="F5E5" to="A4A3"/>
    <trip id="92" depart="165.60" from="C2D2" to="C0D0"/>
    <trip id="93" depart="167.40" from="E5F5" to="B3B4"/>
    <trip id="94" depart="169.20" from="B1C1" to="C4B4"/>
    <trip id="95" depart="171.00" from="C3C2" to="B4B5"/>
    <trip id="96" depart="172.80" from="B3B4" to="F2F1"/>
    <trip id="97" depart="174.60" from="C4B4" to="E5F5"/>
    <trip id="98" depart="176.40" from="D1E1" to="A2A3"/>
    <trip id="99" depart="178.20" from="F5F4" to="E4F4"/>
    <trip id="100" depart="180.00" from="F4F3" to="F2F3"/>
    <trip id="101" depart="181.80" from="E5D5" to="B1A1"/>
    <trip id="102" depart="183.60" from="C5C4" to="B2B3"/>
    <trip id="103" depart="185.40" from="C2D2" to="A2B2"/>
    <trip id="104" depart="187.20" from="C2B2" to="F5E5"/>
    <trip id="105" depart="189.00" from="B4A4" to="E3E2"/>
    <trip id="106" depart="190.80" from="C4C3" to="C3C2"/>
    <trip id="107" depart="192.60" from="F3F4" to="F5F4"/>
    <trip id="108" depart="194.40" from="D1E1" to="E1E0"/>
    <trip id="109" depart="196.20" from="B0C0" to="B5A5"/>
    <trip id="110" depart="198.00" from="F4F3" to="D2D3"/>
    <trip id="111" depart="199.80" from="D1D2" to="E2D2"/>
    <trip id="112" depart="201.60" from="A2A3" to="D2E2"/>
    <trip id="113" depart="203.40" from="D0C0" to="E5E4"/>
    <trip id="114" depart="205.20" from="B0C0" to="F4E4"/>
    <trip id="115" depart="207.00" from="A3A4" to="B1C1"/>
    <trip id="116" depart="208.80" from="D3C3" to="D5E5"/>
    <trip id="117" depart="210.60" from="B3B2" to="A5A4"/>
    <trip id="118" depart="212.40" from="F1E1" to="B3B4"/>
    <trip id="119" depart="214.20" from="D3C3" to="D3E3"/>
    <trip id="120" depart="216.00" from="C3C2" to="D2E2"/>
    <trip id="121" depart="217.80" from="D0E0" to="F3E3"/>
    <trip id="122" depart="219.60" from="B2B1" to="E1D1"/>
    <trip id="123" depart="221.40" from="B3B2" to="C2C3"/>
    <trip id="124" depart="223.20" from="D5D4" to="B5A5"/>
    <trip id="125" depart="225.00" from="B5C5" to="E2E1"/>
    <trip id="126" depart="226.80" from="A3A2" to="C4C3"/>
    <trip id="127" depart="228.60" from="F5F4" to="F5F4"/>
    <trip id="128" depart="230.40" from="A3A2" to="B2B3"/>
    <trip id="129" depart="232.20" from="B4A4" to="F2F3"/>
    <trip id="130" depart="234.00" from="F0F1" to="F0F1"/>
    <trip id="131" depart="235.80" from="C1D1" to="B0C0"/>
    <trip id="132" depart="237.60" from="E4F4" to="E0F0"/>
    <trip id="133" depart="239.40" from="D3D4" to="F5E5"/>
    <trip id="134" depart="241.20" from="D4E4" to="A0A1"/>
    <trip id="135" depart="243.00" from="E4E3" to="B5A5"/>
    <trip id="136" depart="244.80" from="D5C5" to="F3E3"/>
    <trip id="137" depart="246.60" from="B0A0" to="A4B4"/>
    <trip id="138" depart="248.40" from="A4A5" to="D1E1"/>
    <trip id="139" depart="250.20" from="B4B3" to="D3D2"/>
    <trip id="140" depart="252.00" from="E1E0" to="B2B1"/>
    <trip id="141" depart="253.80" from="D4D3" to="B4A4"/>
    <trip id="142" depart="255.60" from="C5C4" to="F1F2"/>
    <trip id="143" depart="257.40" from="E5D5" to="A4A3"/>
    <trip id="144" depart="259.20" from="C3C2" to="B4B5"/>
    <trip id="145" depart="261.00" from="A0A1" to="E2F2"/>
    <trip id="146" depart="262.80" from="D4D3" to="B4A4"/>
    <trip id="147" depart="264.60" from="E1F1" to="D1E1"/>
    <trip id="148" depart="266.40" from="C3C4" to="A0B0"/>
    <trip id="149" depart="268.20" from="A3A4" to="F0F1"/>
    <trip id="150" depart="270.00" from="F1F2" to="D1D2"/>
    <trip id="151" depart="271.80" from="E4F4" to="D2D3"/>
    <trip id="152" depart="273.60" from="B0B1" to="A5B5"/>
    <trip id="153" depart="275.40" from="B5B4" to="F1F0"/>
    <trip id="154" depart="277.20" from="E3E4" to="E5F5"/>
    <trip id="155" depart="279.00" from="F1F0" to="B2B3"/>
    <trip id="156" depart="280.80" from="B3B4" to="A4A5"/>
    <trip id="157" depart="282.60" from="E3D3" to="F1E1"/>
    <trip id="158" depart="284.40" from="C2D2" to="D3E3"/>
    <trip id="159" depart="286.20" from="B0C0" to="F2F3"/>
    <trip id="160" depart="288.00" from="E5F5" to="F4F5"/>
    <trip id="161" depart="289.80" from="E4D4" to="F0F1"/>
    <trip id="162" depart="291.60" from="A1A0" to="E1F1"/>
    <trip id="163" depart="293.40" from="C0C1" to="F2F3"/>
    <trip id="164" depart="295.20" from="E3F3" to="E5F5"/>
    <trip id="165" depart="297.00" from="E4D4" to="B4B3"/>
    <trip id="166" depart="298.80" from="E3E2" to="A4A5"/>
    <trip id="167" depart="300.60" from="F0E0" to="E5F5"/>
    <trip id="168" depart="302.40" from="B2C2" to="E4D4"/>
    <trip id="169" depart="304.20" from="C4C5" to="B5B4"/>
    <trip id="170" depart="306.00" from="E3E4" to="B3A3"/>
    <trip id="171" depart="307.80" from="A1A0" to="B2A2"/>
    <trip id="172" depart="309.60" from="C0C1" to="E5F5"/>
    <trip id="173" depart="311.40" from="F4F3" to="B4B5"/>
    <trip id="174" depart="313.20" from="D4D3" to="C2C3"/>
    <trip id="175" depart="315.00" from="F4F5" to="D1D0"/>
    <trip id="176" depart="316.80" from="F3E3" to="A4B4"/>
    <trip id="177" depart="318.60" from="F4F3" to="B1B2"/>
    <trip id="178" depart="320.40" from="F4E4" to="B4A4"/>
    <trip id="179" depart="322.20" from="A4B4" to="C3D3"/>
    <trip id="180" depart="324.00" from="E1E2" to="B5C5"/>
    <trip id="181" depart="325.80" from="D3D2" to="D0D1"/>
    <trip id="182" depart="327.60" from="C2C1" to="D2D3"/>
    <trip id="183" depart="329.40" from="B3C3" to="E1D1"/>
    <trip id="184" depart="331.20" from="A0A1" to="F2F3"/>
    <trip id="185" depart="333.00" from="D1D0" to="E1E0"/>
    <trip id="186" depart="334.80" from="E2D2" to="D5D4"/>
    <trip id="187" depart="336.60" from="C1C2" to="A3A2"/>
    <trip id="188" depart="338.40" from="D5C5" to="C0C1"/>
    <trip id="189" depart="340.20" from="B5C5" to="E5D5"/>
    <trip id="190" depart="342.00" from="E1E0" to="B5B4"/>
    <trip id="191" depart="343.80" from="B5C5" to="C3B3"/>
    <trip id="192" depart="345.60" from="C2D2" to="B5A5"/>
    <trip id="193" depart="347.40" from="A5B5" to="C3C2"/>
    <trip id="194" depart="349.20" from="F3E3" to="D5E5"/>
    <trip id="195" depart="351.00" from="F1F2" to="D3D4"/>
    <trip id="196" depart="352.80" from="B5B4" to="D1D2"/>
    <trip id="197" depart="354.60" from="A0A1" to="B4C4"/>
    <trip id="198" depart="356.40" from="C3C4" to="D2D3"/>
    <trip id="199" depart="358.20" from="D4E4" to="C4C5"/>
    <trip id="200" depart="360.00" from="C4B4" to="B2B3"/>
    <trip id="201" depart="361.80" from="C4D4" to="F1F2"/>
    <trip id="202" depart="363.60" from="E3E4" to="B1B0"/>
    <trip id="203" depart="365.40" from="A3B3" to="D0D1"/>
    <trip id="204" depart="367.20" from="D4C4" to="C0D0"/>
    <trip id="205" depart="369.00" from="E4E3" to="E2E1"/>
    <trip id="206" depart="370.80" from="D5D4" to="B2C2"/>
    <trip id="207" depart="372.60" from="B2A2" to="A1A0"/>
    <trip id="208" depart="374.40" from="B3B4" to="C5B5"/>
    <trip id="209" depart="376.20" from="E5D5" to="A3A2"/>
    <trip id="210" depart="378.00" from="C3B3" to="D4C4"/>
    <trip id="211" depart="379.80" from="B2A2" to="E0E1"/>
    <trip id="212" depart="381.60" from="C5D5" to="B3B4"/>
    <trip id="213" depart="383.40" from="D4E4" to="A0A1"/>
    <trip id="214" depart="385.20" from="E2E1" to="E2F2"/>
    <trip id="215" depart="387.00" from="A4A5" to="C3C4"/>
    <trip id="216" depart="388.80" from="B1B2" to="F3F4"/>
    <trip id="217" depart="390.60" from="D0E0" to="A2A3"/>
    <trip id="218" depart="392.40" from="B3B4" to="E5D5"/>
    <trip id="219" depart="394.20" from="C4C3" to="E3F3"/>
    <trip id="220" depart="396.00" from="D5D4" to="F5E5"/>
    <trip id="221" depart="397.80" from="D3C3" to="F3F4"/>
    <trip id="222" depart="399.60" from="F1E1" to="D3D4"/>
    <trip id="223" depart="401.40" from="E1E0" to="D0C0"/>
    <trip id="224" depart="403.20" from="E4E5" to="D1D2"/>
    <trip id="225" depart="405.00" from="F1F0" to="E2D2"/>
    <trip id="226" depart="406.80" from="C4D4" to="B4A4"/>
    <trip id="227" depart="408.60" from="B3B4" to="D4D3"/>
    <trip id="228" depart="410.40" from="E2E3" to="D0E0"/>
    <trip id="229" depart="412.20" from="D4C4" to="B4B3"/>
    <trip id="230" depart="414.00" from="A3A4" to="B4C4"/>
    <trip id="231" depart="415.80" from="B4B3" to="C0B0"/>
    <trip id="232" depart="417.60" from="D1D0" to="B0A0"/>
    <trip id="233" depart="419.40" from="B3A3" to="E0E1"/>
    <trip id="234" depart="421.20" from="E0F0" to="A2B2"/>
    <trip id="235" depart="423.00" from="C2D2" to="D1D2"/>
    <trip id="236" depart="424.80" from="C3B3" to="B2B1"/>
    <trip id="237" depart="426.60" from="C3C2" to="F1F2"/>
    <trip id="238" depart="428.40" from="D2E2" to="E0E1"/>
    <trip id="239" depart="430.20" from="E5E4" to="E2E3"/>
    <trip id="240" depart="432.00" from="C2B2" to="A0A1"/>
    <trip id="241" depart="433.80" from="C1C0" to="E2E1"/>
    <trip id="242" depart="435.60" from="E5E4" to="F3F4"/>
    <trip id="243" depart="437.40" from="C3C2" to="E2D2"/>
    <trip id="244" depart="439.20" from="D1D2" to="D3D2"/>
    <trip id="245" depart="441.00" from="B2C2" to="B2C2"/>
    <trip id="246" depart="442.80" from="C3D3" to="A1A2"/>
    <trip id="247" depart="444.60" from="C0D0" to="D5E5"/>
    <trip id="248" depart="446.40" from="C2D2" to="B1A1"/>
    <trip id="249" depart="448.20" from="C4D4" to="A5B5"/>
    <trip id="250" depart="450.00" from="D3E3" to="A1A2"/>
    <trip id="251" depart="451.80" from="C2C3" to="D2C2"/>
    <trip id="252" depart="453.60" from="A1A2" to="D4D5"/>
    <trip id="253" depart="455.40" from="B0A0" to="C4C5"/>
    <trip id="254" depart="457.20" from="A2A3" to="C2B2"/>
    <trip id="255" depart="459.00" from="B2B3" to="C0C1"/>
    <trip id="256" depart="460.80" from="E2E3" to="C2B2"/>
    <trip id="257" depart="462.60" from="E2E1" to="E4E5"/>
    <trip id="258" depart="464.40" from="B3C3" to="A3A4"/>
    <trip id="259" depart="466.20" from="A1A0" to="D1D0"/>
    <trip id="260" depart="468.00" from="F5F4" to="C1B1"/>
    <trip id="261" depart="469.80" from="D4E4" to="E3D3"/>
    <trip id="262" depart="471.60" from="D4E4" to="E2E1"/>
    <trip id="263" depart="473.40" from="F3F2" to="B2A2"/>
    <trip id="264" depart="475.20" from="A1A0" to="B0C0"/>
    <trip id="265" depart="477.00" from="A5B5" to="D5D4"/>
    <trip id="266" depart="478.80" from="D2C2" to="B2C2"/>
    <trip id="267" depart="480.60" from="E0E1" to="E2F2"/>
    <trip id="268" depart="482.40" from="B1B0" to="D3D2"/>
    <trip id="269" depart="484.20" from="E2D2" to="A4B4"/>
    <trip id="270" depart="486.00" from="E4E3" to="F4E4"/>
    <trip id="271" depart="487.80" from="A4A5" to="A1A2"/>
    <trip id="272" depart="489.60" from="B5C5" to="D5E5"/>
    <trip id="273" depart="491.40" from="F3F4" to="C2C3"/>
    <trip id="274" depart="493.20" from="E1D1" to="A3A4"/>
    <trip id="275" depart="495.00" from="E0D0" to="D4C4"/>
    <trip id="276" depart="496.80" from="A4A5" to="E2F2"/>
    <trip id="277" depart="498.60" from="E5E4" to="D3D2"/>
    <trip id="278" depart="500.40" from="A5A4" to="F5E5"/>
    <trip id="279" depart="502.20" from="E3D3" to="C1B1"/>
    <trip id="280" depart="504.00" from="C3C4" to="C1D1"/>
    <trip id="281" depart="505.80" from="D0C0" to="C0D0"/>
    <trip id="282" depart="507.60" from="E5D5" to="E4E3"/>
    <trip id="283" depart="509.40" from="A4A5" to="F4E4"/>
    <trip id="284" depart="511.20" from="D4D3" to="E4E5"/>
    <trip id="285" depart="513.00" from="E0F0" to="C3D3"/>
    <trip id="286" depart="514.80" from="E1F1" to="F4E4"/>
    <trip id="287" depart="516.60" from="B4B3" to="E3F3"/>
    <trip id="288" depart="518.40" from="D1D0" to="C5C4"/>
    <trip id="289" depart="520.20" from="C3D3" to="E1E2"/>
    <trip id="290" depart="522.00" from="B4B3" to="E5E4"/>
    <trip id="291" depart="523.80" from="E4E5" to="A3B3"/>
    <trip id="292" depart="525.60" from="F0F1" to="B3B4"/>
    <trip id="293" depart="527.40" from="C4C5" to="D3D4"/>
    <trip id="294" depart="529.20" from="C2B2" to="A1A2"/>
    <trip id="295" depart="531.00" from="E5E4" to="B1B2"/>
    <trip id="296" depart="532.80" from="B2B3" to="E3E4"/>
    <trip id="297" depart="534.60" from="C0D0" to="F0F1"/>
    <trip id="298" depart="536.40" from="E0F0" to="B4B5"/>
    <trip id="299" depart="538.20" from="A0B0" to="F3F2"/>
    <trip id="300" depart="540.00" from="A3B3" to="E1E0"/>
    <trip id="301" depart="541.80" from="C5C4" to="E2E1"/>
    <trip id="302" depart="543.60" from="E0D0" to="D4D5"/>
    <trip id="303" depart="545.40" from="C5C4" to="E3E4"/>
    <trip id="304" depart="547.20" from="A4A3" to="B2C2"/>
    <trip id="305" depart="549.00" from="E0E1" to="B5B4"/>
    <trip id="306" depart="550.80" from="D2D3" to="C4D4"/>
    <trip id="307" depart="552.60" from="D1C1" to="C3C4"/>
    <trip id="308" depart="554.40" from="E2D2" to="C0C1"/>
    <trip id="309" depart="556.20" from="E0F0" to="B4B3"/>
    <trip id="310" depart="558.00" from="B3C3" to="A5A4"/>
    <trip id="311" depart="559.80" from="B2A2" to="A5A4"/>
    <trip id="312" depart="561.60" from="D1D0" to="E2E3"/>
    <trip id="313" depart="563.40" from="B1C1" to="B2B3"/>
    <trip id="314" depart="565.20" from="C5C4" to="E1E0"/>
    <trip id="315" depart="567.00" from="F4F5" to="D0E0"/>
    <trip id="316" depart="568.80" from="B4B5" to="A4A5"/>
    <trip id="317" depart="570.60" from="B2A2" to="B3A3"/>
    <trip id="318" depart="572.40" from="B1B2" to="A0B0"/>
    <trip id="319" depart="574.20" from="D1D0" to="B4B3"/>
    <trip id="320" depart="576.00" from="F4F3" to="D1E1"/>
    <trip id="321" depart="577.80" from="E0E1" to="A5B5"/>
    <trip id="322" depart="579.60" from="F0E0" to="C5C4"/>
    <trip id="323" depart="581.40" from="F0E0" to="D2D1"/>
    <trip id="324" depart="583.20" from="C4D4" to="C3D3"/>
    <trip id="325" depart="585.00" from="B1C1" to="A2A3"/>
    <trip id="326" depart="586.80" from="F3E3" to="C5B5"/>
    <trip id="327" depart="588.60" from="E4E3" to="C2D2"/>
    <trip id="328" depart="590.40" from="A3A2" to="D4C4"/>
    <trip id="329" depart="592.20" from="A2A3" to="B0B1"/>
    <trip id="330" depart="594.00" from="D2C2" to="B5B4"/>
    <trip id="331" depart="595.80" from="F5F4" to="A5A4"/>
    <trip id="332" depart="597.60" from="E2E3" to="D3D2"/>
    <trip id="333" depart="599.40" from="E3E2" to="B3A3"/>
    <trip id="334" depart="601.20" from="D0E0" to="C4C3"/>
    <trip id="335" depart="603.00" from="C4B4" to="E5F5"/>
    <trip id="336" depart="604.80" from="F5E5" to="B5B4"/>
    <trip id="337" depart="606.60" from="D3E3" to="D3D4"/>
    <trip id="338" depart="608.40" from="E1F1" to="F3F2"/>
    <trip id="339" depart="610.20" from="B2B1" to="B2B3"/>
    <trip id="340" depart="612.00" from="D5C5" to="B0C0"/>
    <trip id="341" depart="613.80" from="B1B0" to="A3A4"/>
    <trip id="342" depart="615.60" from="A0A1" to="C4C3"/>
    <trip id="343" depart="617.40" from="D3C3" to="B4C4"/>
    <trip id="344" depart="619.20" from="B3A3" to="E0F0"/>
    <trip id="345" depart="621.00" from="E0F0" to="C4C3"/>
    <trip id="346" depart="622.80" from="E0D0" to="F2F1"/>
    <trip id="347" depart="624.60" from="E3E2" to="D4C4"/>
    <trip id="348" depart="626.40" from="D5C5" to="F3E3"/>
    <trip id="349" depart="628.20" from="C3C4" to="D1D2"/>
    <trip id="350" depart="630.00" from="D4D5" to="F2E2"/>
    <trip id="351" depart="631.80" from="E4E5" to="A3A2"/>
    <trip id="352" depart="633.60" from="B1A1" to="B5B4"/>
    <trip id="353" depart="635.40" from="E2D2" to="D2D1"/>
    <trip id="354" depart="637.20" from="B4C4" to="A5A4"/>
    <trip id="355" depart="639.00" from="E0D0" to="E0E1"/>
    <trip id="356" depart="640.80" from="F3F2" to="D0C0"/>
    <trip id="357" depart="642.60" from="C5D5" to="A3A4"/>
    <trip id="358" depart="644.40" from="A1B1" to="C3C4"/>
    <trip id="359" depart="646.20" from="C0B0" to="B3C3"/>
    <trip id="360" depart="648.00" from="A3B3" to="F4E4"/>
    <trip id="361" depart="649.80" from="E4F4" to="D2D3"/>
    <trip id="362" depart="651.60" from="F3F4" to="F5F4"/>
    <trip id="363" depart="653.40" from="D5D4" to="B4B3"/>
    <trip id="364" depart="655.20" from="A1B1" to="E2E1"/>
    <trip id="365" depart="657.00" from="C4D4" to="D4E4"/>
    <trip id="366" depart="658.80" from="F2E2" to="B1B2"/>
    <trip id="367" depart="660.60" from="D2E2" to="D4D3"/>
    <trip id="368" depart="662.40" from="C5D5" to="A3B3"/>
    <trip id="369" depart="664.20" from="C1B1" to="C0C1"/>
    <trip id="370" depart="666.00" from="D5D4" to="E5E4"/>
    <trip id="371" depart="667.80" from="C0C1" to="E0E1"/>
    <trip id="372" depart="669.60" from="B4C4" to="F3F2"/>
    <trip id="373" depart="671.40" from="E4D4" to="D1E1"/>
    <trip id="374" depart="673.20" from="C4C3" to="B5C5"/>
    <trip id="375" depart="675.00" from="C0B0" to="F4F3"/>
    <trip id="376" depart="676.80" from="C2D2" to="D0D1"/>
    <trip id="377" depart="678.60" from="F5E5" to="D4E4"/>
    <trip id="378" depart="680.40" from="D1D2" to="C3B3"/>
    <trip id="379" depart="682.20" from="B1C1" to="C1C2"/>
    <trip id="380" depart="684.00" from="E2E1" to="D4C4"/>
    <trip id="381" depart="685.80" from="E2E3" to="B2B1"/>
    <trip id="382" depart="687.60" from="D1D2" to="F2F3"/>
    <trip id="383" depart="689.40" from="C3D3" to="E0E1"/>
    <trip id="384" depart="691.20" from="A5A4" to="F4F3"/>
    <trip id="385" depart="693.00" from="D3D4" to="B3B2"/>
    <trip id="386" depart="694.80" from="B1A1" to="D1E1"/>
    <trip id="387" depart="696.60" from="D1E1" to="A4A3"/>
    <trip id="388" depart="698.40" from="F5F4" to="F2E2"/>
    <trip id="389" depart="700.20" from="C4C5" to="A5A4"/>
    <trip id="390" depart="702.00" from="E4E5" to="C5D5"/>
    <trip id="391" depart="703.80" from="E1D1" to="D0D1"/>
    <trip id="392" depart="705.60" from="B4B3" to="E4F4"/>
    <trip id="393" depart="707.40" from="F4F5" to="B3B4"/>
    <trip id="394" depart="709.20" from="D1E1" to="C2C1"/>
    <trip id="395" depart="711.00" from="F2F1" to="D0C0"/>
    <trip id="396" depart="712.80" from="F0F1" to="E5F5"/>
    <trip id="397" depart="714.60" from="B4B5" to="E3E2"/>
    <trip id="398" depart="716.40" from="C3B3" to="F3E3"/>
    <trip id="399" depart="718.20" from="D0C0" to="E4E3"/>
    <trip id="400" depart="720.00" from="B4B5" to="B5A5"/>
    <trip id="401" depart="721.80" from="D2E2" to="F5F4"/>
    <trip id="402" depart="723.60" from="C5C4" to="B0B1"/>
    <trip id="403" depart="725.40" from="D1D0" to="C1B1"/>
    <trip id="404" depart="727.20" from="D1E1" to="D1D2"/>
    <trip id="405" depart="729.00" from="C4C3" to="C0B0"/>
    <trip id="406" depart="730.80" from="B1C1" to="E0E1"/>
    <trip id="407" depart="732.60" from="D2D1" to="B3B2"/>
    <trip id="408" depart="734.40" from="E3D3" to="A2A1"/>
    <trip id="409" depart="736.20" from="E2D2" to="E0F0"/>
    <trip id="410" depart="738.00" from="E4D4" to="C2C1"/>
    <trip id="411" depart="739.80" from="D5C5" to="E4E3"/>
    <trip id="412" depart="741.60" from="F4F5" to="C5D5"/>
    <trip id="413" depart="743.40" from="A1B1" to="D0C0"/>
    <trip id="414" depart="745.20" from="D2E2" to="F0E0"/>
    <trip id="415" depart="747.00" from="F0E0" to="C3D3"/>
    <trip id="416" depart="748.80" from="D1C1" to="C4C3"/>
    <trip id="417" depart="750.60" from="E1E0" to="C3B3"/>
    <trip id="418" depart="752.40" from="D4E4" to="B0C0"/>
    <trip id="419" depart="754.20" from="C4D4" to="F4F3"/>
    <trip id="420" depart="756.00" from="C0D0" to="E0E1"/>
    <trip id="421" depart="757.80" from="D4D5" to="E5E4"/>
    <trip id="422" depart="759.60" from="E5E4" to="E5F5"/>
    <trip id="423" depart="761.40" from="C2B2" to="B5C5"/>
    <trip id="424" depart="763.20" from="E1E0" to="E2E3"/>
    <trip id="425" depart="765.00" from="F0E0" to="A1B1"/>
    <trip id="426" depart="766.80" from="A3A2" to="D4C4"/>
    <trip id="427" depart="768.60" from="F2F1" to="F5F4"/>
    <trip id="428" depart="770.40" from="E2D2" to="C3D3"/>
    <trip id="429" depart="772.20" from="A4A3" to="D4D3"/>
    <trip id="430" depart="774.00" from="F0E0" to="C4B4"/>
    <trip id="431" depart="775.80" from="E0E1" to="F1F2"/>
    <trip id="432" depart="777.60" from="A2A1" to="E3E4"/>
    <trip id="433" depart="779.40" from="B5A5" to="C1D1"/>
    <trip id="434" depart="781.20" from="B0B1" to="D1C1"/>
    <trip id="435" depart="783.00" from="D2C2" to="E3E4"/>
    <trip id="436" depart="784.80" from="B1B0" to="A3A4"/>
    <trip id="437" depart="786.60" from="F0E0" to="D3E3"/>
    <trip id="438" depart="788.40" from="B3B2" to="F2E2"/>
    <trip id="439" depart="790.20" from="B0B1" to="C4C5"/>
    <trip id="440" depart="792.00" from="B3C3" to="B3C3"/>
    <trip id="441" depart="793.80" from="A0B0" to="E3F3"/>
    <trip id="442" depart="795.60" from="F1F2" to="D5E5"/>
    <trip id="443" depart="797.40" from="B0C0" to="C4B4"/>
    <trip id="444" depart="799.20" from="C1B1" to="D2E2"/>
    <trip id="445" depart="801.00" from="D4D3" to="C3C2"/>
    <trip id="446" depart="802.80" from="B3C3" to="E5D5"/>
    <trip id="447" depart="804.60" from="B2A2" to="C2C1"/>
    <trip id="448" depart="806.40" from="C5B5" to="B3B2"/>
    <trip id="449" depart="808.20" from="D2D1" to="D2D1"/>
    <trip id="450" depart="810.00" from="F5F4" to="B5A5"/>
    <trip id="451" depart="811.80" from="F4F5" to="D4E4"/>
    <trip id="452" depart="813.60" from="B4B3" to="D2C2"/>
    <trip id="453" depart="815.40" from="E0D0" to="E2D2"/>
    <trip id="454" depart="817.20" from="A2A1" to="D3D2"/>
    <trip id="455" depart="819.00" from="C5D5" to="F1F2"/>
    <trip id="456" depart="820.80" from="B4C4" to="E3E4"/>
    <trip id="457" depart="822.60" from="D3D2" to="C1C0"/>
    <trip id="458" depart="824.40" from="D4D3" to="D3E3"/>
    <trip id="459" depart="826.20" from="D5E5" to="E1E0"/>
    <trip id="460" depart="828.00" from="D5C5" to="E4F4"/>
    <trip id="461" depart="829.80" from="D4C4" to="F1F2"/>
    <trip id="462" depart="831.60" from="D4D5" to="B5C5"/>
    <trip id="463" depart="833.40" from="C3D3" to="D2D3"/>
    <trip id="464" depart="835.20" from="E1E2" to="A3B3"/>
    <trip id="465" depart="837.00" from="B5A5" to="E2D2"/>
    <trip id="466" depart="838.80" from="B1B2" to="A5B5"/>
    <trip id="467" depart="840.60" from="D1D0" to="F4F3"/>
    <trip id="468" depart="842.40" from="D1C1" to="F2E2"/>
    <trip id="469" depart="844.20" from="E4E5" to="B3C3"/>
    <trip id="470" depart="846.00" from="E4E3" to="C5B5"/>
    <trip id="471" depart="847.80" from="E3F3" to="E2D2"/>
    <trip id="472" depart="849.60" from="C0D0" to="A4B4"/>
    <trip id="473" depart="851.40" from="F4E4" to="B0A0"/>
    <trip id="474" depart="853.20" from="F4E4" to="E5F5"/>
    <trip id="475" depart="855.00" from="E1E0" to="F4F5"/>
    <trip id="476" depart="856.80" from="F4F3" to="E3F3"/>
    <trip id="477" depart="858.60" from="C1C2" to="E3E2"/>
    <trip id="478" depart="860.40" from="A0B0" to="D1D0"/>
    <trip id="479" depart="862.20" from="C4C3" to="D5D4"/>
    <trip id="480" depart="864.00" from="D5D4" to="D2E2"/>
    <trip id="481" depart="865.80" from="E4E3" to="F3E3"/>
    <trip id="482" depart="867.60" from="A4B4" to="B3B2"/>
    <trip id="483" depart="869.40" from="A1A2" to="F1E1"/>
    <trip id="484" depart="871.20" from="D2C2" to="F2E2"/>
    <trip id="485" depart="873.00" from="B2C2" to="A2B2"/>
    <trip id="486" depart="874.80" from="E4E3" to="F2E2"/>
    <trip id="487" depart="876.60" from="B5B4" to="C2D2"/>
    <trip id="488" depart="878.40" from="B0A0" to="F3F2"/>
    <trip id="489" depart="880.20" from="B5B4" to="C5D5"/>
    <trip id="490" depart="882.00" from="A4A3" to="F1E1"/>
    <trip id="491" depart="883.80" from="B0A0" to="C4C3"/>
    <trip id="492" depart="885.60" from="D5D4" to="E2D2"/>
    <trip id="493" depart="887.40" from="F3F2" to="C3C2"/>
    <trip id="494" depart="889.20" from="E2D2" to="B0C0"/>
    <trip id="495" depart="891.00" from="C3B3" to="A4A3"/>
    <trip id="496" depart="892.80" from="C5C4" to="C2D2"/>
    <trip id="497" depart="894.60" from="F3F4" to="A1A2"/>
    <trip id="498" depart="896.40" from="C1D1" to="C4B4"/>
    <trip id="499" depart="898.20" from="F3F4" to="E5E4"/>
    <trip id="500" depart="900.00" from="A4A3" to="E0D0"/>
    <trip id="501" depart="901.80" from="D1D2" to="F4F5"/>
    <trip id="502" depart="903.60" from="C1C2" to="C2C3"/>